; Filename: networks/Hanoi_CMH.inp
; WNTR: 0.1.3
; Created: 2018-07-10 19:42:56
[TITLE]

[JUNCTIONS]
;ID                      Elevation       Demand Pattern                 
 10                             30 146.510510654                       ;
 11                             30 135.775606326                        ;
 12                             30 156.294018928                        ;
 13                             30 256.314291867                        ;
 14                             30 173.064452311                        ;
 15                             30 76.5062795012                        ;
 16                             30 84.7369823604                        ;
 17                             30 234.746909568                        ;
 18                             30 386.520390776                        ;
 19                             30 16.7306972008                        ;
 2                              30 255.598708966                         ;
 20                             30 345.525647249                        ;
 21                             30 251.974005727                        ;
 22                             30 134.594130089                        ;
 23                             30 288.984158397                        ;
 24                             30 222.730480645                        ;
 25                             30 47.8349914893                        ;
 26                             30 245.37399689                        ;
 27                             30 98.4786252579                        ;
 28                             30 82.1641894682                        ;
 29                             30 103.011563966                        ;
 3                              30 239.282781296                         ;
 30                             30 104.430972307                        ;
 31                             30 30.5986769983                        ;
 32                             30 213.115964762                        ;
 4                              30 37.113562737                         ;
 5                              30 193.843439978                         ;
 6                              30 272.062398571                         ;
 7                              30 386.355668379                         ;
 8                              30 147.017076409                         ;
 9                              30 141.996051526                         ;

[RESERVOIRS]
;ID                           Head                  Pattern
 1                             100                            ;

[TANKS]
;ID                      Elevation   Init Level    Min Level    Max Level     Diameter   Min Volume Volume Curve        

[PIPES]
;ID                   Node1                Node2                      Length     Diameter    Roughness   Minor Loss               Status
 1                    1                    2                    114.229817984 1060.91628515 119.494620724            0                 Open   ;
 10                   10                   11                   888.97258349 829.346944159 139.336078033            0                 Open   ;
 11                   11                   12                   1128.7930638 776.112804159 134.289806886            0                 Open   ;
 12                   12                   13                   3405.21710821  623.2200717 124.118271105            0                 Open   ;
 13                   10                   14                   724.86024322 424.638662091 120.642555836            0                 Open   ;
 14                   14                   15                   560.386204619 391.606536282 137.592143626            0                 Open   ;
 15                   15                   16                   556.71045974 321.745373012 138.363615213            0                 Open   ;
 16                   17                   16                   2779.98459646 433.428771497 124.128608901            0                 Open   ;
 17                   17                   18                   1984.06067528 464.981103952 123.90844148            0                 Open   ;
 18                   18                   19                   831.656046106 570.165532024 138.335433011            0                 Open   ;
 19                   19                   3                    393.385422118 635.088476533 127.789809429            0                 Open   ;
 2                    2                    3                    1391.15684484 843.082218928 124.416637139            0                 Open   ;
 20                   3                    20                   1949.03880614 871.244305486 134.43667863            0                 Open   ;
 21                   20                   21                   1300.23513039 539.762702844 121.327589693            0                 Open   ;
 22                   21                   22                   495.439991755 245.26218719 124.667178836            0                 Open   ;
 23                   20                   23                   3045.12585162 922.564163854 129.969462329            0                 Open   ;
 24                   23                   24                   1137.58399441 880.399850941 121.120514532            0                 Open   ;
 25                   24                   25                   1113.36103396 896.93003232 142.248572841            0                 Open   ;
 26                   26                   25                   739.039162794 500.557315329 134.733247578            0                 Open   ;
 27                   27                   26                   270.271725844 280.180092679 125.30355716            0                 Open   ;
 28                   16                   27                   847.789367718 314.77834651 131.433208262            0                 Open   ;
 29                   23                   28                   1539.36566031 350.733483438 117.390078262            0                 Open   ;
 3                    3                    4                    836.572579817 909.395438107 122.160406942            0                 Open   ;
 30                   28                   29                   1840.15736728 337.721532815 141.788714507            0                 Open   ;
 31                   29                   30                   1632.00218752 330.462121333 139.71833167            0                 Open   ;
 32                   30                   31                   152.222559636 313.441149023 136.609607476            0                 Open   ;
 33                   32                   31                   759.857494078 394.440431029 140.232428745            0                 Open   ;
 34                   25                   32                   868.293433491 443.794823465 125.709381631            0                 Open   ;
 4                    4                    5                    1055.00227945 853.189378827 117.70303137            0                 Open   ;
 5                    5                    6                    1662.72001111 979.844441182 127.417036249            0                 Open   ;
 6                    6                    7                    455.550887315 1162.1169378 136.988263145            0                 Open   ;
 7                    7                    8                    975.841581577 990.467946328 118.929765294            0                 Open   ;
 8                    8                    9                    751.82059517 1053.50792872 134.546448185            0                 Open   ;
 9                    9                    10                   895.333962296 1027.50565155 128.573673519            0                 Open   ;

[PUMPS]
;ID                   Node1                Node2                Properties          

[VALVES]
;ID                   Node1                Node2                    Diameter Type      Setting   Minor Loss

[EMITTERS]
;ID        Flow coefficient

[CURVES]
;ID         X-Value      Y-Value     

[PATTERNS]
;ID        Multipliers


[ENERGY]
GLOBAL PRICE   0.0000
GLOBAL PATTERN ""
GLOBAL EFFIC   75.0000
DEMAND CHARGE  0.0000

[STATUS]
;ID        Setting   

[CONTROLS]

[RULES]

[DEMANDS]
;ID        Demand     Pattern   

[QUALITY]

[REACTIONS]
 ORDER BULK 1
 ORDER WALL 1
 ORDER TANK 1
 GLOBAL BULK 0.0000    
 GLOBAL WALL 0.0000    
 LIMITING POTENTIAL 0.0000    
 ROUGHNESS CORRELATION 0.0000    

[SOURCES]
;Node      Type       Quality    Pattern   

[MIXING]
;Tank ID             Model Fraction

[OPTIONS]
UNITS                CMH                 
HEADLOSS             H-W                 
QUALITY              NONE mg/L
VISCOSITY            1
DIFFUSIVITY          1
SPECIFIC GRAVITY     1
TRIALS               40
ACCURACY             1e-06
CHECKFREQ            2
UNBALANCED           CONTINUE 10
PATTERN              1                   
DEMAND MULTIPLIER    1
EMITTER EXPONENT     0.5
TOLERANCE            0.01

[TIMES]
 Duration           	24:00 
 Hydraulic Timestep 	0:30
 Quality Timestep   	0:05 
 Pattern Timestep   	0:30 
 Pattern Start      	0:00 
 Report Timestep    	0:30 
 Report Start       	0:00 
 Start ClockTime    	0:00:00
 Statistic          	NONE

[REPORT]
SUMMARY    NO

[COORDINATES]
;Node      X-Coord    Y-Coord   
24         3977.800000 7172.900000
25         3954.440000 7990.650000
26         4410.050000 7990.650000
27         4818.930000 7990.650000
20         4550.230000 5969.630000
21         4550.230000 5303.740000
22         4550.230000 4591.120000
23         3977.800000 5969.630000
28         3405.370000 5969.630000
29         2716.120000 6004.670000
1          5251.170000 4485.980000
3          5227.800000 5969.630000
2          5251.170000 5268.690000
5          6676.400000 5969.630000
4          6068.930000 5969.630000
7          7260.510000 6600.470000
6          7260.510000 5969.630000
9          7260.510000 7990.650000
8          7260.510000 7301.400000
11         6793.220000 8551.400000
10         6793.220000 7990.650000
13         6150.700000 8960.280000
12         6793.220000 8960.280000
15         5683.410000 7990.650000
14         6302.570000 7990.650000
17         5216.120000 7535.050000
16         5216.120000 7990.650000
19         5227.800000 6542.060000
18         5227.800000 7137.850000
31         2716.120000 7990.650000
30         2716.120000 6904.210000
32         3405.370000 7990.650000

[VERTICES]
;Link      X-Coord    Y-Coord   

[LABELS]

[BACKDROP]
DIMENSIONS 0.00 0.00 10000.00 10000.00
UNITS None
OFFSET 0.00 0.00

[TAGS]
;type      name       tag       

[END]
