; Filename: /home/mashraf/GCNs_for_WDS/wds/balerma/toy/balerma.inp
; WNTR: 1.2.0
; Created: 2024-12-29 21:10:47
[TITLE]
Balerma Network

[JUNCTIONS]
;ID                      Elevation       Demand Pattern                 
 179001                            60   0.59730584591                            ;
 179                               60    0.5863306772                            ;
 177                             58.9    1.0619401807                            ;
 174                               60   0.99717000405                            ;
 173                             59.3    1.5130467194                            ;
 171001                            60    1.0846353781                            ;
 171                               60    0.9099337457                            ;
 172                               60   0.91833822153                            ;
 170                               60   0.98639751543                            ;
 165                             56.7    1.4309785712                            ;
 166                             57.3   0.81168971636                            ;
 168                             57.1     1.051851615                            ;
 169                             56.5    1.5094765435                            ;
 163                             55.2   0.56586362265                            ;
 164                             57.8   0.56686385782                            ;
 162                             55.2    1.2283804229                            ;
 161                               55   0.93582573622                            ;
 106                               54    1.4822083061                            ;
 124                             52.2   0.74651112545                            ;
 125                             51.1    1.1803347489                            ;
 125001                          49.4   0.57234941716                            ;
 126                             49.3    1.3765682624                            ;
 127                             56.5    1.4256093938                            ;
 128                               55     1.010306303                            ;
 129                             52.3    1.4454139289                            ;
 130                             50.2     1.466027907                            ;
 132                               55   0.87950718649                            ;
 131001                            57    1.4131931832                            ;
 131                             52.4   0.65146102225                            ;
 133                             46.6    1.3697973545                            ;
 134                             28.8   0.66524492065                            ;
 135                               60    1.0400291305                            ;
 136                             43.3    1.2970642003                            ;
 137                               25   0.68476259077                            ;
 138                             23.6   0.67922344678                            ;
 139                             42.5   0.91562885817                            ;
 141                               50   0.81268679476                            ;
 143                             38.3   0.64665313311                            ;
 144                             36.8    0.7189282804                            ;
 145                               27     1.202885801                            ;
 142                               24    1.0755473553                            ;
 140001                          55.5   0.96082629947                            ;
 151                             56.5   0.94678535475                            ;
 152                               55    1.5012381197                            ;
 107                               50    1.0718042834                            ;
 108                             46.2    1.4589545214                            ;
 109                             48.6    1.2234956144                            ;
 110                             47.6   0.74770713612                            ;
 111                             47.1   0.99569717786                            ;
 113                             47.9    0.8091617782                            ;
 114                               46    0.5590551083                            ;
 112                             45.6     1.097838236                            ;
 115                               50   0.80631417865                            ;
 116                               50   0.77398159503                            ;
 117                             47.5    1.4492428906                            ;
 118                               45   0.91900287346                            ;
 119                               46    1.2703390115                            ;
 105                             55.8      0.96423833                            ;
 102                             54.5    1.0525155022                            ;
 103                             51.5    1.1461923272                            ;
 104                             52.4    1.5243817993                            ;
 100                             53.1   0.96371529284                            ;
 101                             51.2      1.53153618                            ;
 96                              52.8   0.99211577077                            ;
 97                              51.4    1.4130458885                            ;
 98                                46    1.2892169342                            ;
 99                                45    1.3987870519                            ;
 93                                50    0.8429383407                            ;
 94                              51.7   0.98883313988                            ;
 95                              51.4   0.86587105432                            ;
 92                                40   0.84504915182                            ;
 160                             32.9    1.0851294812                            ;
 159001                            34     1.246596818                            ;
 159                             31.4   0.72774515835                            ;
 156                             34.2     0.854995866                            ;
 157                               40    1.3909285887                            ;
 158                               46   0.86134506561                            ;
 155                               34   0.64516157046                            ;
 154                             41.6    1.1062298245                            ;
 153                               34    1.3825216064                            ;
 55                                30   0.90955962504                            ;
 59                                21   0.92541668013                            ;
 60                                11   0.67927975456                            ;
 61                                 5   0.91502724824                            ;
 62                               3.5   0.70871948535                            ;
 147                               33    1.0705343576                            ;
 150                               45   0.58198934351                            ;
 148                               29   0.80489763456                            ;
 149                               19    1.0947872834                            ;
 63                                 9   0.77553927991                            ;
 64                               4.5   0.73762586684                            ;
 65                               3.3    1.1480622689                            ;
 66                               1.2    0.5801802543                            ;
 67                              12.3    1.2853457857                            ;
 68                               9.3   0.76905714391                            ;
 69                              8.16   0.65764858955                            ;
 70                               8.8    1.0405021063                            ;
 71                               8.1    0.8842728972                            ;
 72                               7.4    0.5803617822                            ;
 56                              12.9   0.66238907653                            ;
 57                               4.8    1.2446234247                            ;
 58                                 3    1.2258306437                            ;
 53                              14.5    1.1695128507                            ;
 54                               4.1      1.26660712                            ;
 52                                31   0.88823158049                            ;
 46001                             33   0.57304189854                            ;
 50                                20    1.1894971778                            ;
 51                               4.4   0.98500702925                            ;
 47                              13.1    1.5439961407                            ;
 48                               7.1    1.4093963226                            ;
 49                               1.6    1.0870957416                            ;
 42                                15   0.80441862006                            ;
 45                               5.9    1.5276213738                            ;
 46                               3.5    1.1260085575                            ;
 41                                31   0.61930615645                            ;
 35                                30    1.1798271886                            ;
 36                                13   0.97096252091                            ;
 39                                10    1.2517828359                            ;
 40                               6.3   0.88062880075                            ;
 37                                 6   0.61720654596                            ;
 91                              42.5    1.4188296776                            ;
 90                                45    1.2708307631                            ;
 89                                47     1.228134937                            ;
 31                                20   0.87037222689                            ;
 32                               7.1    1.0402323254                            ;
 34                               4.4   0.91970692704                            ;
 33                               4.6    1.0574778381                            ;
 28001                           32.2    1.2514969623                            ;
 28                              22.5    1.4785171737                            ;
 29                               9.2    1.4379777873                            ;
 30                              5.65   0.58599043419                            ;
 27                              31.2    1.0822088317                            ;
 26                              12.3    1.4557868687                            ;
 23                               7.5   0.94107047082                            ;
 22                               5.2     1.082253316                            ;
 87                              40.3   0.71079349043                            ;
 86                              41.4   0.63480466932                            ;
 83                              40.2    1.2875339338                            ;
 77                                45   0.87398538023                            ;
 81                              44.4    1.2335966428                            ;
 78                              44.8      1.12743049                            ;
 79                              45.8    1.2216530166                            ;
 80                              46.6    1.2322029891                            ;
 82                              46.9    1.5167769951                            ;
 84                                40   0.99174228641                            ;
 85                                50    1.2346879945                            ;
 121                               50   0.65523055644                            ;
 122                             49.3    1.2941358232                            ;
 123                             47.3   0.58499539449                            ;
 120                             49.5   0.65575777918                            ;
 75                                47    1.4211479456                            ;
 76                              47.4   0.76316297036                            ;
 73                              32.5   0.89055108545                            ;
 74                                40   0.90853527373                            ;
 227                             52.8   0.85807874186                            ;
 215001                            75   0.96665399977                            ;
 215                               60   0.74942819052                            ;
 219                               50    1.1483299207                            ;
 220                             52.3   0.68356132678                            ;
 221                             51.7    1.4729069138                            ;
 222                               52   0.69605805579                            ;
 223                             50.8   0.94708342976                            ;
 223001                          54.5   0.98084532417                            ;
 224                             50.1     1.028911332                            ;
 225                             49.5    1.0786168391                            ;
 226                             50.7    1.5005203911                            ;
 214                               74    1.0391691457                            ;
 216                             62.7    1.5229063032                            ;
 217                               62   0.58666843554                            ;
 218                            57.25   0.97827927739                            ;
 201                               95    1.2484331513                            ;
 203                             94.2   0.94547077873                            ;
 204                             92.9    1.3351760436                            ;
 205                             91.4   0.88164079734                            ;
 211                             90.8    1.5164031019                            ;
 212                               65    1.2462920423                            ;
 206                             84.2   0.62332868635                            ;
 207                             80.6    1.2312566037                            ;
 208                             76.8    1.4187724228                            ;
 209                               70   0.88710212832                            ;
 210                               70   0.82167200105                            ;
 213                             73.8    1.2924471336                            ;
 200001                            95    1.0186008006                            ;
 199                               94    1.3537871875                            ;
 196                             92.7   0.78673462431                            ;
 197                               90    1.4315547003                            ;
 198                             89.6    1.2756035357                            ;
 233                            87.17    1.0026268625                            ;
 232                             84.2    1.0118770876                            ;
 231                             80.5   0.62272751186                            ;
 230                             72.5    1.4215699942                            ;
 234                               65   0.63568152052                            ;
 194                               95    0.5999338985                            ;
 195                               95    1.2890368352                            ;
 192                               95    1.2958733028                            ;
 193                               85   0.79579659517                            ;
 234001                            65   0.76944082273                            ;
 235                             71.5   0.73296237047                            ;
 236                               76    1.5013602781                            ;
 237                               83   0.69718060794                            ;
 238                             81.3   0.72071163777                            ;
 240                               83    0.6284683205                            ;
 239                             86.3   0.86837394139                            ;
 190001                            95    1.0961968248                            ;
 187                               95   0.94053562661                            ;
 188                             94.2   0.55497135874                            ;
 189                             90.5   0.70547471634                            ;
 186                               95    1.1215573388                            ;
 185                               95    0.8988750392                            ;
 235001                          75.5    1.2282801426                            ;
 241                             83.3   0.90506314964                            ;
 242                             87.8    0.6105761121                            ;
 243                             83.6   0.79485598971                            ;
 244                             78.1   0.66843916134                            ;
 245                             83.5    1.0572593353                            ;
 183                             87.7   0.93772026288                            ;
 184                             85.7    1.0988444453                            ;
 182                               95   0.78278865463                            ;
 249                             94.1    1.4022368272                            ;
 248                               95    1.2127108936                            ;
 247                             90.8    1.4985391762                            ;
 246                               85   0.82525105992                            ;
 181                               93   0.75093024868                            ;
 266                             71.4    1.1899538468                            ;
 180004                          84.2    1.3233850607                            ;
 190                               95   0.80559684014                            ;
 191                             91.8   0.90184008795                            ;
 180003                            90   0.90078995288                            ;
 180002                            95     1.261754937                            ;
 180001                          95.6    1.2177263662                            ;
 180                               95   0.86025171643                            ;
 287                             73.3    1.3863836554                            ;
 286                               72    1.4276823785                            ;
 285                               71   0.65390130291                            ;
 284                               70    1.5131696033                            ;
 200                             77.8    1.4901778668                            ;
 274                             65.5   0.93886060557                            ;
 275                               66    0.5795686791                            ;
 276                               71    1.4353590659                            ;
 265                               70    1.1587307923                            ;
 268                               65    0.7677571879                            ;
 269                               66     0.757983275                            ;
 271                             72.4    1.1645960331                            ;
 270                             73.7    1.3465765191                            ;
 318                               35    1.1087708815                            ;
 317                               40    1.4865637123                            ;
 316                               46    1.4297199485                            ;
 315                               45   0.85882341662                            ;
 313                               45   0.72961467955                            ;
 314                               40    1.3553381954                            ;
 312                             45.6    1.5044587877                            ;
 310                             45.7    0.7766599844                            ;
 311                             48.4   0.95493930997                            ;
 309                               50    1.2571212501                            ;
 297                               52    1.5336299934                            ;
 298                               55      1.19525203                            ;
 299                               60    1.4009640626                            ;
 296                             51.7   0.89534466751                            ;
 294                             48.5    1.5157290321                            ;
 293                             47.6    1.2006752823                            ;
 291                               49    1.3012666778                            ;
 295                             51.4   0.85172494611                            ;
 288                               55   0.77444547207                            ;
 289                               71    1.1876151022                            ;
 290                               68    1.2540069204                            ;
 282                             66.8     0.882995321                            ;
 277                               60     1.204719347                            ;
 278                             67.2    1.4073077757                            ;
 279                             71.4   0.94278689208                            ;
 280                             73.6   0.88679565384                            ;
 281                               75    1.2603490967                            ;
 272                             73.4    1.3525600114                            ;
 273                               70   0.63396623811                            ;
 264                             70.5   0.62173328573                            ;
 257001                            71   0.94110793002                            ;
 258001                          74.4    1.1342573743                            ;
 259001                          71.6    1.4381469973                            ;
 260001                          75.3    0.7426952667                            ;
 261                             76.4    1.4457438925                            ;
 262                               76    1.0042885508                            ;
 263                             75.8    1.2729212773                            ;
 255                             82.6     0.712651186                            ;
 258                             83.5   0.97697053647                            ;
 259                             83.3   0.68034082115                            ;
 260                             81.5   0.81759311278                            ;
 256                               84   0.65582513204                            ;
 257                               87    1.3152082112                            ;
 254                             83.9    1.1536945448                            ;
 250004                            85    1.1999086455                            ;
 421                             98.1   0.99861276363                            ;
 420                             99.8    0.7549093207                            ;
 419                            101.1    1.0851172583                            ;
 418                              103    1.0828551488                            ;
 416                              103    1.0167685132                            ;
 417                              104   0.62302711582                            ;
 415                              103     1.335086083                            ;
 414                              102    1.0311162582                            ;
 413                              100    1.3419702299                            ;
 250001                           100    1.2939818916                            ;
 21                               4.8    1.3922077073                            ;
 319                             46.9   0.67173316147                            ;
 320                             47.5    1.4061633555                            ;
 20                                11    1.2471697605                            ;
 19                               3.2    1.5486277332                            ;
 18                                 8   0.84413756287                            ;
 302                               50    0.7344833099                            ;
 303                               50    1.4776846039                            ;
 305                               51   0.70879945194                            ;
 306                             54.8   0.58168307896                            ;
 307                             54.8    1.3587037178                            ;
 321                               50      1.36083048                            ;
 11                                 4    0.5873068153                            ;
 322                             47.4     1.241955441                            ;
 323                               44    1.0748197682                            ;
 301                             75.2   0.67130309146                            ;
 300                               75   0.67995015998                            ;
 324                             53.4    1.1755423313                            ;
 368                               58    1.1594996439                            ;
 367                             59.8    1.4134366416                            ;
 369                             59.2    1.4613371029                            ;
 325                               75   0.81452637088                            ;
 365                             79.7    1.1380234268                            ;
 362                               80    1.1652331956                            ;
 360001                          80.5   0.86693508126                            ;
 360                             80.6    1.2058861621                            ;
 359                             80.7    1.2432971707                            ;
 361                             79.5    1.4646808031                            ;
 366                             79.4    1.2182752589                            ;
 364                               80    1.2600314552                            ;
 363                             80.5   0.83856389855                            ;
 326                             75.7    1.0182060027                            ;
 327                             76.5   0.81367874218                            ;
 328                               77   0.96756291375                            ;
 329                             77.7   0.85486775688                            ;
 330                             75.3    1.0086656406                            ;
 334                             80.2    1.0955172451                            ;
 336                               80   0.69325708543                            ;
 331                             75.7    1.1451172527                            ;
 332                               75    1.3560797808                            ;
 333                               80    1.3861393451                            ;
 337                            84.36   0.92383768881                            ;
 338                             81.1   0.55630045503                            ;
 340                            83.54   0.77635399135                            ;
 341                             83.6    1.4624855251                            ;
 250                               83    1.0495129791                            ;
 251                             82.5    1.4056439393                            ;
 253                             78.8   0.96377973733                            ;
 252                             78.8   0.88302744008                            ;
 342                             82.8   0.99776872284                            ;
 343                             82.2   0.93701310331                            ;
 344                             80.2   0.97127276404                            ;
 339                             81.6   0.61565441657                            ;
 250003                            86    1.5203192348                            ;
 250002                          88.6    1.0112677867                            ;
 412                               90   0.71667737406                            ;
 411                             89.7    1.3278963547                            ;
 410                             89.7   0.65904639585                            ;
 409                               87    1.1356325475                            ;