; Filename: networks/L-Town/All-Areas/L-TOWN.inp
; WNTR: 0.4.0
; Created: 2023-02-03 14:50:13
[TITLE]
L-TOWN v1.2
L-TOWN (v1.2) was developed by KIOS Research and Innovation Center of Excellence for the BattLeDIM 2020 competition

[JUNCTIONS]
;ID                      Elevation       Demand Pattern                 
 n1                           73.2105               0 ;
 n2                           73.8737         0.16992 ;
 n3                           73.1782          0.1908 ;
 n4                           68.2608               0 ;
 n5                           65.5695          0.2322 ;
 n6                           70.9095          0.2466 ;
 n7                           75.9175         0.37836 ;
 n8                           64.4833         0.30132 ;
 n9                           69.2626         0.40464 ;
 n10                          74.3469         0.08424 ;
 n11                          63.0588         0.54432 ;
 n12                          68.2274         0.05832 ;
 n13                          61.9901          0.2358 ;
 n14                          68.5805         0.01944 ;
 n15                          70.9492         0.19152 ;
 n16                          68.7986         0.09648 ;
 n17                          60.5935         0.44892 ;
 n18                           67.142         0.07236 ;
 n19                          73.3626         0.12924 ;
 n20                          65.9549         0.14436 ;
 n21                          59.6849         0.06084 ;
 n22                          76.1173         0.15084 ;
 n23                          64.2052         0.02869 ;
 n24                          67.8217         0.04392 ;
 n25                          58.9717               0 ;
 n26                          61.6305         0.00468 ;
 n27                          65.7763         0.13068 ;
 n28                          61.4047               0 ;
 n29                          71.5429         0.04896 ;
 n30                          75.3299         0.30564 ;
 n31                          65.0059         0.11628 ;
 n32                           71.159         0.07992 ;
 n33                          60.5902         0.00288 ;
 n34                          65.8482         0.11232 ;
 n35                          59.6258               0 ;
 n36                          70.1959          0.2664 ;
 n37                          63.9172          0.0846 ;
 n38                          58.5794         0.18889 ;
 n39                          62.9791         0.01656 ;
 n40                          60.2093           0.342 ;
 n41                          69.2961         0.17028 ;
 n42                          61.0635           0.243 ;
 n43                          61.8585         0.11808 ;
 n44                          66.1177         0.03888 ;
 n45                          62.5989         0.27288 ;
 n343                           66.12          0.1283 ;
 n344                           74.28          0.2664 ;
 n345                           71.23         0.05256 ;
 n346                           67.93         0.17856 ;
 n347                         73.6617               0 ;
 n348                         74.1128         0.02988 ;
 n349                          74.564         0.05976 ;
 n350                         75.0152         0.20844 ;
 n351                         75.4663          0.3924 ;
 n352                         74.1103          0.1332 ;
 n353                         73.5455         0.29268 ;
 n354                         73.9127         0.12312 ;
 n355                         66.4555         0.43812 ;
 n356                         67.3414          0.1242 ;
 n357                          69.745         0.10224 ;
 n358                         75.9841         0.55008 ;
 n359                         76.0507         0.38808 ;
 n360                         64.9738          0.2682 ;
 n361                         65.4644          0.1134 ;
 n362                         74.0188         0.00576 ;
 n363                         73.6907         0.15444 ;
 n364                         63.4409         0.09936 ;
 n365                         63.8231         0.11052 ;
 n366                         61.8702          0.1638 ;
 n367                         61.7504         0.04489 ;
 n368                         71.0896         0.11556 ;
 n369                         60.5924         0.17784 ;
 n370                         60.5913         0.04027 ;
 n371                         73.8213         0.07056 ;
 n372                         65.8656           0.036 ;
 n373                         59.6553          0.0306 ;
 n374                         74.9737         0.11268 ;
 n375                         73.8301         0.05868 ;
 n376                         72.6865         0.12816 ;
 n377                         62.9179               0 ;
 n378                         68.9578         0.01368 ;
 n379                         70.0939          0.0972 ;
 n380                         61.2341         0.16812 ;
 n381                         74.0464         0.23004 ;
 n382                         72.7629          0.1476 ;
 n383                         71.4794          0.0846 ;
 n384                         69.5445         0.21024 ;
 n385                         66.8891         0.04896 ;
 n386                         59.3943         0.24876 ;
 n387                         64.9448         0.16092 ;
 n388                         63.7718         0.29851 ;
 n389                         67.0238         0.16812 ;

[RESERVOIRS]
;ID                                   Head                  Pattern
 n785                             100                            ;

[TANKS]
;ID                              Elevation           Init Level            Min Level            Max Level             Diameter           Min Volume Volume Curve         Overflow            

[PIPES]
;ID                   Node1                Node2                              Length             Diameter            Roughness           Minor Loss               Status
 p5                   n3                   n2                           23.7879             100             140               0                 Open   ;
 p6                   n12                  n14                          31.2114             100             140               0                 Open   ;
 p7                   n6                   n9                           43.3995             100             140               0                 Open   ;
 p8                   n22                  n30                          53.0045             100             140               0                 Open   ;
 p11                  n7                   n10                          68.3713             100             140               0                 Open   ;
 p12                  n9                   n4                           70.3494             100             140               0                 Open   ;
 p13                  n31                  n27                          49.4422             100             140               0                 Open   ;
 p14                  n14                  n16                          34.2032             100             140               0                 Open   ;
 p15                  n15                  n16                          72.2253             100             140               0                 Open   ;
 p16                  n16                  n18                          50.1237             100             140               0                 Open   ;
 p17                  n18                  n20                          54.2489             100             140               0                 Open   ;
 p18                  n18                  n24                           65.191             100             140               0                 Open   ;
 p19                  n21                  n25                          56.4633             100             140               0                 Open   ;
 p20                  n26                  n28                          29.6436             100             140               0                 Open   ;
 p21                  n27                  n34                          47.7731             100             140               0                 Open   ;
 p22                  n28                  n33                          43.8692             100             140               0                 Open   ;
 p23                  n29                  n32                          18.6286             100             140               0                 Open   ;
 p24                  n32                  n36                          50.1077             100             140               0                 Open   ;
 p25                  n33                  n35                          72.5123             100             140               0                 Open   ;
 p26                  n34                  n37                          60.0953             100             140               0                 Open   ;
 p27                  n35                  n38                          38.7224             100             140               0                 Open   ;
 p28                  n36                  n41                          42.5986             100             140               0                 Open   ;
 p29                  n37                  n45                          63.0851             100             140               0                 Open   ;
 p30                  n37                  n39                          49.6992             100             140               0                 Open   ;
 p31                  n40                  n42                          48.2914             100             140               0                 Open   ;
 p32                  n42                  n43                          41.6678             100             140               0                 Open   ;
 p33                  n43                  n45                          40.4763             100             140               0                 Open   ;
 p240                 n343                 n44                          23.9926             200             140               0                 Open   ;
 p241                 n5                   n8                            52.157             100             140               0                 Open   ;
 p242                 n8                   n11                          62.8657             100             140               0                 Open   ;
 p243                 n11                  n13                          58.9374             100             140               0                 Open   ;
 p244                 n13                  n17                          72.0893             100             140               0                 Open   ;
 p245                 n17                  n21                          73.4228             100             140               0                 Open   ;
 p246                 n10                  n344                         66.1972             100             140               0                 Open   ;
 p247                 n344                 n15                          62.8912             100             140               0                 Open   ;
 p248                 n24                  n346                         56.5717             100             140               0                 Open   ;
 p249                 n345                 n29                          60.1765             100             140               0                 Open   ;
 p250                 n19                  n345                         63.0229             100             140               0                 Open   ;
 p251                 n23                  n31                           48.454             100             140               0                 Open   ;
 p252                 n20                  n23                          61.1031             100             140               0                 Open   ;
 p253                 n1                   n347                          68.097             100             140               0                 Open   ;
 p254                 n347                 n348                         45.4723             100             140               0                 Open   ;
 p255                 n348                 n349                         50.5431             100             140               0                 Open   ;
 p256                 n349                 n350                         50.0042             100             140               0                 Open   ;
 p257                 n350                 n351                         45.6975             100             140               0                 Open   ;
 p258                 n351                 n7                           54.9718             100             140               0                 Open   ;
 p259                 n2                   n352                         45.9778             100             140               0                 Open   ;
 p260                 n352                 n10                          45.9758             100             140               0                 Open   ;
 p261                 n3                   n353                         47.9576             100             140               0                 Open   ;
 p262                 n353                 n354                         46.1673             100             140               0                 Open   ;
 p263                 n354                 n344                         46.6814             100             140               0                 Open   ;
 p264                 n5                   n355                         58.9057             100             140               0                 Open   ;
 p265                 n355                 n356                         47.8409             100             140               0                 Open   ;
 p266                 n356                 n12                          42.6386             100             140               0                 Open   ;
 p267                 n6                   n357                         44.7387             100             140               0                 Open   ;
 p268                 n357                 n14                          74.2158             100             140               0                 Open   ;
 p269                 n7                   n358                         54.8852             100             140               0                 Open   ;
 p270                 n358                 n359                         54.8734             100             140               0                 Open   ;
 p271                 n359                 n22                          54.8852             100             140               0                 Open   ;
 p272                 n8                   n360                         54.4422             100             140               0                 Open   ;
 p273                 n360                 n361                         54.4379             100             140               0                 Open   ;
 p274                 n361                 n20                          54.4422             100             140               0                 Open   ;
 p275                 n10                  n362                          55.052             100             140               0                 Open   ;
 p276                 n362                 n363                         42.0531             100             140               0                 Open   ;
 p277                 n363                 n19                          52.7753             100             140               0                 Open   ;
 p278                 n11                  n364                         49.2109             100             140               0                 Open   ;
 p279                 n364                 n365                          49.202             100             140               0                 Open   ;
 p280                 n365                 n23                          49.2109             100             140               0                 Open   ;
 p281                 n13                  n366                         46.9238             100             140               0                 Open   ;
 p282                 n366                 n367                         46.9108             100             140               0                 Open   ;
 p283                 n367                 n26                          46.9238             100             140               0                 Open   ;
 p284                 n15                  n368                         40.9555             100             140               0                 Open   ;
 p285                 n368                 n345                         40.9555             100             140               0                 Open   ;
 p286                 n17                  n369                         41.7936             100             140               0                 Open   ;
 p287                 n369                 n370                         41.7842             100             140               0                 Open   ;
 p288                 n370                 n33                          41.7936             100             140               0                 Open   ;
 p289                 n19                  n371                         44.3754             100             140               0                 Open   ;
 p290                 n371                 n344                          44.388             100             140               0                 Open   ;
 p291                 n20                  n372                         52.1064             100             140               0                 Open   ;
 p292                 n372                 n27                          31.2938             100             140               0                 Open   ;
 p293                 n21                  n373                         56.6909             100             140               0                 Open   ;
 p294                 n373                 n35                          56.6782             100             140               0                 Open   ;
 p295                 n22                  n374                         45.2612             100             140               0                 Open   ;
 p296                 n374                 n375                         45.2612             100             140               0                 Open   ;
 p297                 n375                 n376                         45.2708             100             140               0                 Open   ;
 p298                 n376                 n29                          45.2612             100             140               0                 Open   ;
 p299                 n23                  n377                          37.911             100             140               0                 Open   ;
 p300                 n377                 n26                            37.92             100             140               0                 Open   ;
 p301                 n24                  n378                         42.1213             100             140               0                 Open   ;
 p302                 n378                 n379                         42.1282             100             140               0                 Open   ;
 p303                 n379                 n345                         42.1213             100             140               0                 Open   ;
 p304                 n28                  n380                         51.8914             100             140               0                 Open   ;
 p305                 n380                 n42                          51.8798             100             140               0                 Open   ;
 p306                 n30                  n381                         49.2268             100             140               0                 Open   ;
 p307                 n381                 n382                         49.2364             100             140               0                 Open   ;
 p308                 n382                 n383                         49.2241             100             140               0                 Open   ;
 p309                 n383                 n36                          49.2364             100             140               0                 Open   ;
 p310                 n32                  n384                         54.2583             100             140               0                 Open   ;
 p311                 n384                 n346                         54.2656             100             140               0                 Open   ;
 p312                 n34                  n385                         37.8059             100             140               0                 Open   ;
 p313                 n385                 n346                         37.8079             100             140               0                 Open   ;
 p314                 n38                  n386                         58.7666             100             140               0                 Open   ;
 p315                 n386                 n40                          58.7569             100             140               0                 Open   ;
 p316                 n44                  n387                         48.3058             200             140               0                 Open   ;
 p317                 n387                 n388                         48.3053             200             140               0                 Open   ;
 p318                 n388                 n45                          48.3058             200             140               0                 Open   ;
 p319                 n44                  n389                         41.9903             100             140               0                 Open   ;
 p320                 n389                 n346                         41.9919             100             140               0                 Open   ;
 p910                 n785                 n343                         30.48               104             100               0                 Open   ;

[PUMPS]
;ID                   Node1                Node2                Properties          

[VALVES]
;ID                   Node1                Node2                            Diameter Type              Setting           Minor Loss

[TAGS]
;type      name       tag       

[STATUS]
;ID        Setting   

[PATTERNS]
;ID        Multipliers

[CURVES]
;ID         X-Value      Y-Value     
;PUMP: 1
 1              0.000000   126.670000   ;
 1             27.385600    88.669000   ;
 1             49.999000     0.000000   ;


[CONTROLS]

[RULES]

[ENERGY]
GLOBAL EFFICIENCY      75.0000
GLOBAL PRICE           0.0000
DEMAND CHARGE          0.0000

[EMITTERS]
;ID        Flow coefficient

[QUALITY]

[SOURCES]
;Node      Type       Quality    Pattern   

[REACTIONS]
;Type           Pipe/Tank               Coefficient

 ORDER BULK 1
 ORDER TANK 1
 ORDER WALL 1
 GLOBAL BULK 0.0000    
 GLOBAL WALL 0.0000    
 LIMITING POTENTIAL 0.0000    
 ROUGHNESS CORRELATION 0.0000    

[MIXING]
;Tank ID             Model Fraction

[TIMES]
 Duration           	24:00 
 Hydraulic Timestep 	0:30
 Quality Timestep   	0:05 
 Pattern Timestep   	0:30 
 Pattern Start      	0:00 
 Report Timestep    	0:30 
 Report Start       	0:00 
 Start ClockTime    	0:00:00
 Statistic          	NONE

[REPORT]
STATUS     FULL
SUMMARY    NO
PAGE       0

[OPTIONS]
UNITS                CMH                 
HEADLOSS             H-W                 
SPECIFIC GRAVITY     1
VISCOSITY            1
TRIALS               50
ACCURACY             0.01
CHECKFREQ            2
MAXCHECK             10
UNBALANCED           CONTINUE 10
DEMAND MULTIPLIER    5
EMITTER EXPONENT     0.5
QUALITY              NONE                
DIFFUSIVITY          1
TOLERANCE            0.01

[COORDINATES]
;Node      X-Coord    Y-Coord   
n1                138.220000000       1549.640000000
n2                274.230000000       1504.560000000
n3                271.280000000       1480.960000000
n4                186.620000000       1326.650000000
n5                158.930000000       1233.340000000
n6                261.330000000       1361.980000000
n7                369.970000000       1543.260000000
n8                162.650000000       1181.320000000
n9                256.540000000       1318.850000000
n10               361.450000000       1475.420000000
n11               167.140000000       1118.610000000
n12               271.090000000       1281.280000000
n13               170.680000000       1059.780000000
n14               302.240000000       1279.260000000
n15               344.840000000       1347.410000000
n16               336.370000000       1277.060000000
n17               177.120000000        987.980000000
n18               331.160000000       1227.210000000
n19               439.910000000       1391.070000000
n20               325.780000000       1173.230000000
n21               181.220000000        914.670000000
n22               525.830000000       1490.190000000
n23               314.660000000       1113.150000000
n24               393.300000000       1207.500000000
n25               195.950000000        860.160000000
n26               309.660000000       1037.480000000
n27               378.840000000       1136.180000000
n28               305.940000000       1008.070000000
n29               482.970000000       1314.280000000
n30               575.550000000       1471.840000000
n31               361.510000000       1100.770000000
n32               478.090000000       1296.300000000
n33               300.290000000        964.570000000
n34               423.910000000       1120.350000000
n35               292.400000000        892.500000000
n36               525.890000000       1281.280000000
n37               405.030000000       1063.300000000
n38               288.820000000        853.940000000
n39               389.450000000       1016.100000000
n40               370.290000000        938.650000000
n41               566.530000000       1268.510000000
n42               403.760000000        973.450000000
n43               432.650000000       1003.480000000
n44               526.160000000       1162.060000000
n45               460.340000000       1032.960000000
n343              548.480000000       1153.260000000
n344              353.140000000       1409.750000000
n345              424.850000000       1329.870000000
n346              447.730000000       1192.110000000
n347              135.020000000       1617.660000000
n348              179.230000000       1607.010000000
n349              227.110000000       1590.820000000
n350              275.120000000       1576.830000000
n351              318.710000000       1563.110000000
n352              317.840000000       1489.990000000
n353              263.420000000       1433.650000000
n354              308.000000000       1421.640000000
n355              217.790000000       1235.650000000
n356              265.510000000       1239.010000000
n357              305.240000000       1353.420000000
n358              421.930000000       1525.570000000
n359              473.870000000       1507.880000000
n360              217.030000000       1178.620000000
n361              271.400000000       1175.930000000
n362              413.650000000       1457.940000000
n363              452.680000000       1442.270000000
n364              216.320000000       1116.790000000
n365              265.490000000       1114.970000000
n366              217.010000000       1052.350000000
n367              263.330000000       1044.910000000
n368              384.840000000       1338.640000000
n369              218.180000000        980.170000000
n370              259.230000000        972.370000000
n371              396.530000000       1400.410000000
n372              377.560000000       1167.440000000
n373              236.810000000        903.590000000
n374              515.110000000       1446.210000000
n375              504.400000000       1402.240000000
n376              493.680000000       1358.260000000
n377              312.170000000       1075.320000000
n378              403.810000000       1248.290000000
n379              414.340000000       1289.080000000
n380              354.860000000        990.760000000
n381              563.140000000       1424.200000000
n382              550.730000000       1376.560000000
n383              538.310000000       1328.920000000
n384              462.920000000       1244.210000000
n385              435.830000000       1156.230000000
n386              329.560000000        896.300000000
n387              504.220000000       1119.030000000
n388              482.270000000       1075.990000000
n389              486.950000000       1177.090000000
n785              573.350000000       1142.780000000

[VERTICES]
;Link      X-Coord    Y-Coord   

[LABELS]

[BACKDROP]
DIMENSIONS    0.00    0.00    2970.45    1694.69
UNITS    METERS
OFFSET    0.00    0.00

[END]
