[TITLE]
L-TOWN v1.2
L-TOWN (v1.2) was developed by KIOS Research and Innovation Center of Excellence for the BattLeDIM 2020 competition

[JUNCTIONS]
;ID              	Elev        	Demand      	Pattern         
 n1              	73.2105     	0.000000    	;AMR & PRESSURE SENSOR
 n2              	73.8737     	0.169920    	;AMR
 n3              	73.1782     	0.190800    	;AMR
 n4              	68.2608     	0.000000    	;AMR & PRESSURE SENSOR
 n5              	65.5695     	0.232200    	;
 n6              	70.9095     	0.246600    	;AMR
 n7              	75.9175     	0.378360    	;AMR
 n8              	64.4833     	0.301320    	;AMR
 n9              	69.2626     	0.404640    	;AMR
 n10             	74.3469     	0.084240    	;AMR
 n11             	63.0588     	0.544320    	;AMR
 n12             	68.2274     	0.058320    	;
 n13             	61.9901     	0.235800    	;AMR
 n14             	68.5805     	0.019440    	;
 n15             	70.9492     	0.191520    	;
 n16             	68.7986     	0.096480    	;AMR
 n17             	60.5935     	0.448920    	;AMR
 n18             	67.1420     	0.072360    	;AMR
 n19             	73.3626     	0.129240    	;AMR
 n20             	65.9549     	0.144360    	;AMR
 n21             	59.6849     	0.060840    	;AMR
 n22             	76.1173     	0.150840    	;AMR
 n23             	64.2052     	0.028690    	;AMR
 n24             	67.8217     	0.043920    	;AMR
 n25             	58.9717     	0.000000    	;AMR
 n26             	61.6305     	0.004680    	;AMR
 n27             	65.7763     	0.130680    	;AMR
 n28             	61.4047     	0.000000    	;AMR
 n29             	71.5429     	0.048960    	;AMR
 n30             	75.3299     	0.305640    	;AMR
 n31             	65.0059     	0.116280    	;AMR & PRESSURE SENSOR
 n32             	71.1590     	0.079920    	;AMR
 n33             	60.5902     	0.002880    	;AMR
 n34             	65.8482     	0.112320    	;AMR
 n35             	59.6258     	0.000000    	;AMR
 n36             	70.1959     	0.266400    	;AMR
 n37             	63.9172     	0.084600    	;
 n38             	58.5794     	0.188890    	;
 n39             	62.9791     	0.016560    	;AMR
 n40             	60.2093     	0.342000    	;AMR
 n41             	69.2961     	0.170280    	;AMR
 n42             	61.0635     	0.243000    	;AMR
 n43             	61.8585     	0.118080    	;AMR
 n44             	66.1177     	0.038880    	;AMR
 n45             	62.5989     	0.272880    	;AMR
 n46             	38.8781     	0.069660    	;
 n47             	38.7028     	0.146160    	;
 n48             	40.1135     	0.217850    	;
 n49             	34.8665     	0.103630    	;
 n50             	44.7174     	0.389880    	;
 n51             	29.8508     	0.333400    	;
 n52             	33.2106     	0.048910    	;
 n53             	29.1285     	0.299520    	;
 n54             	36.6718     	0.084800    	;PRESSURE SENSOR
 n55             	43.7044     	0.253550    	;
 n56             	32.7019     	0.318220    	;
 n57             	34.5788     	0.068060    	;
 n58             	30.1017     	0.163750    	;
 n59             	40.5440     	0.134780    	;
 n60             	36.5477     	0.087550    	;
 n61             	36.5714     	0.026330    	;
 n62             	35.9600     	0.079060    	;
 n63             	37.0071     	0.155950    	;
 n64             	34.9234     	0.156920    	;
 n65             	36.2244     	0.042440    	;
 n66             	34.2760     	0.073260    	;
 n67             	32.5016     	0.404710    	;
 n68             	41.0943     	0.178130    	;
 n69             	27.7774     	0.377230    	;
 n70             	29.8554     	0.178200    	;
 n71             	30.0823     	0.241830    	;
 n72             	34.4673     	0.019490    	;
 n73             	33.0899     	0.031540    	;
 n74             	32.3582     	0.049100    	;
 n75             	40.1001     	0.024430    	;
 n76             	30.5603     	0.097450    	;
 n77             	33.9737     	0.029480    	;
 n78             	29.2383     	0.099880    	;
 n79             	32.7267     	0.182740    	;
 n80             	27.7113     	0.258300    	;
 n81             	31.0269     	0.172220    	;
 n82             	39.6884     	0.176080    	;
 n83             	35.7824     	0.153000    	;
 n84             	28.8092     	0.141950    	;
 n85             	38.6811     	0.001080    	;
 n86             	38.1149     	0.181980    	;
 n87             	35.2466     	0.006120    	;
 n88             	34.2301     	0.076970    	;
 n89             	31.7913     	0.018130    	;
 n90             	36.3955     	0.106920    	;
 n91             	33.0649     	0.013320    	;
 n92             	33.1049     	0.015730    	;
 n93             	29.3998     	0.161140    	;
 n94             	27.5188     	0.534740    	;
 n95             	25.4416     	0.000000    	;
 n96             	24.1924     	0.138700    	;
 n97             	27.2125     	0.424660    	;
 n98             	25.5648     	0.123120    	;
 n99             	23.3478     	0.171720    	;
 n100            	25.0658     	0.363820    	;
 n101            	24.1570     	0.126000    	;
 n102            	23.6941     	0.094480    	;
 n103            	24.3635     	0.084670    	;
 n104            	20.9592     	0.000000    	;
 n105            	24.0220     	0.001400    	;PRESSURE SENSOR
 n106            	23.5008     	0.111960    	;
 n107            	23.5410     	0.000740    	;
 n108            	19.8166     	0.000000    	;
 n109            	23.4984     	0.000578    	;
 n110            	23.8384     	0.028040    	;
 n111            	25.0000     	0.368930    	;
 n112            	23.5656     	0.117070    	;
 n113            	23.6071     	0.125660    	;
 n114            	20.4764     	0.082370    	;PRESSURE SENSOR
 n115            	23.8321     	0.006480    	;
 n116            	20.9110     	0.190190    	;
 n117            	26.9614     	0.258340    	;
 n118            	19.0993     	0.000000    	;
 n119            	20.0895     	0.242570    	;
 n120            	22.6201     	0.084960    	;
 n121            	19.3967     	0.000240    	;
 n122            	22.4946     	0.101660    	;
 n123            	21.5338     	0.134350    	;
 n124            	22.6501     	0.011880    	;
 n125            	20.5899     	0.050000    	;
 n126            	19.1670     	0.238030    	;
 n127            	19.1187     	0.005960    	;
 n128            	22.0969     	0.111820    	;
 n129            	25.9010     	0.142020    	;
 n130            	22.1732     	0.204700    	;
 n131            	19.5520     	0.118220    	;
 n132            	20.3762     	0.132120    	;
 n133            	22.5783     	0.279270    	;
 n134            	19.2113     	0.008960    	;
 n135            	19.1205     	0.113180    	;
 n136            	20.3013     	0.336020    	;
 n137            	19.6856     	0.036760    	;
 n138            	20.8380     	0.027270    	;
 n139            	19.6632     	0.000000    	;
 n140            	27.3504     	0.116680    	;
 n141            	23.1252     	0.216070    	;
 n142            	19.6239     	0.039850    	;
 n143            	20.8754     	0.123980    	;
 n144            	26.9472     	0.339640    	;
 n145            	22.1344     	0.126360    	;
 n146            	21.8276     	0.173000    	;
 n147            	19.9725     	0.157900    	;
 n148            	20.1477     	0.072000    	;
 n149            	20.9496     	0.056300    	;
 n150            	22.6861     	0.017100    	;
 n151            	19.8447     	0.032150    	;
 n152            	19.1334     	0.000000    	;
 n153            	22.6394     	0.213190    	;
 n154            	20.3582     	0.161530    	;
 n155            	26.3852     	0.089890    	;
 n156            	20.0619     	0.016800    	;
 n157            	20.4464     	0.026800    	;
 n158            	19.7472     	0.000000    	;
 n159            	27.0053     	0.147670    	;
 n160            	20.2078     	0.239620    	;
 n161            	21.3197     	0.000000    	;
 n162            	26.9729     	0.021060    	;
 n163            	21.6096     	0.046850    	;PRESSURE SENSOR
 n164            	20.2745     	0.178520    	;
 n165            	19.8081     	0.323570    	;
 n166            	20.2750     	0.231620    	;
 n167            	22.5413     	0.151630    	;
 n168            	20.4384     	0.046980    	;
 n169            	27.0181     	0.063590    	;
 n170            	23.2339     	0.568040    	;
 n171            	20.6067     	0.218520    	;
 n172            	19.1601     	0.050540    	;
 n173            	21.0596     	0.179390    	;
 n174            	21.4292     	0.000000    	;
 n175            	19.3536     	0.117940    	;
 n176            	27.7038     	0.114520    	;
 n177            	19.3479     	0.167330    	;
 n178            	21.9026     	0.037840    	;
 n179            	19.4895     	0.000000    	;
 n180            	22.7778     	0.021200    	;
 n181            	23.7049     	0.129240    	;
 n182            	25.0850     	0.161820    	;
 n183            	19.3859     	0.134350    	;
 n184            	27.2441     	0.053530    	;
 n185            	19.0789     	0.157250    	;
 n186            	21.8196     	0.110160    	;
 n187            	19.0349     	0.023510    	;
 n188            	18.8768     	0.000360    	;PRESSURE SENSOR
 n189            	18.6826     	0.116420    	;
 n190            	19.6529     	0.058320    	;
 n191            	27.4799     	0.345710    	;
 n192            	22.2060     	0.254930    	;
 n193            	19.7041     	0.027360    	;
 n194            	19.7601     	0.020250    	;
 n195            	16.8285     	0.099400    	;
 n196            	19.8226     	0.075740    	;
 n197            	16.5799     	0.000000    	;
 n198            	22.8492     	0.000000    	;
 n199            	16.5475     	0.159410    	;
 n200            	18.2407     	0.142880    	;
 n201            	19.1060     	0.062210    	;
 n202            	17.9436     	0.028190    	;
 n203            	22.0332     	0.190800    	;
 n204            	16.4360     	0.069980    	;
 n205            	6.9791      	0.000000    	;
 n206            	7.9123      	0.000000    	;
 n207            	2.0579      	0.000000    	;
 n208            	5.9061      	0.000000    	;
 n209            	4.6117      	0.000000    	;
 n210            	2.7477      	0.000000    	;
 n211            	4.8451      	0.000000    	;
 n212            	2.3488      	0.000000    	;
 n213            	3.2427      	0.000000    	;
 n214            	16.8316     	0.008940    	;
 n215            	2.0066      	0.000000    	;PRESSURE SENSOR
 n216            	2.4091      	0.000000    	;
 n217            	1.8712      	0.000000    	;
 n218            	29.6006     	0.136480    	;
 n219            	28.4518     	0.120530    	;
 n220            	30.7523     	0.181370    	;
 n221            	28.2232     	0.089750    	;
 n222            	28.0585     	0.008280    	;
 n223            	28.5629     	0.044950    	;
 n224            	26.9114     	0.111220    	;
 n225            	25.5000     	0.196040    	;
 n226            	6.1130      	0.000000    	;
 n227            	5.7901      	0.000000    	;
 n228            	27.3852     	0.102260    	;
 n229            	21.5781     	0.178420    	;PRESSURE SENSOR
 n230            	28.3962     	0.041980    	;
 n231            	4.8639      	0.000000    	;
 n232            	26.0377     	0.040680    	;
 n233            	4.4157      	0.000000    	;
 n234            	5.1036      	0.097420    	;
 n235            	24.1047     	0.274770    	;
 n236            	3.0871      	0.000000    	;
 n237            	4.0834      	0.130030    	;
 n238            	24.6076     	0.341640    	;
 n239            	22.9677     	0.235940    	;
 n240            	28.8065     	0.202970    	;
 n241            	22.1953     	0.177620    	;
 n242            	2.3582      	0.000000    	;
 n243            	2.6564      	0.000000    	;
 n244            	21.2523     	0.589540    	;
 n245            	28.6610     	0.100760    	;
 n246            	1.9044      	0.000000    	;
 n247            	2.1170      	0.000000    	;
 n248            	29.3100     	0.164810    	;
 n249            	28.5347     	0.045220    	;
 n250            	28.4140     	0.089750    	;
 n251            	21.3004     	0.189000    	;
 n252            	24.7044     	0.136260    	;
 n253            	2.2871      	0.188710    	;
 n254            	2.2175      	0.003240    	;
 n255            	20.9378     	0.000720    	;
 n256            	17.7770     	0.242640    	;
 n257            	28.3219     	0.053730    	;
 n258            	24.7483     	0.050290    	;
 n259            	24.6010     	0.000000    	;
 n260            	17.7457     	0.126500    	;
 n261            	16.7006     	0.141480    	;
 n262            	24.2606     	0.215950    	;
 n263            	24.6696     	0.104020    	;
 n264            	20.6282     	0.000000    	;
 n265            	28.4319     	0.030710    	;
 n266            	19.9680     	0.320690    	;
 n267            	23.3745     	0.131170    	;
 n268            	21.9354     	0.112550    	;
 n269            	26.1653     	0.097560    	;
 n270            	20.8216     	0.177300    	;
 n271            	34.0390     	0.147440    	;
 n272            	20.1368     	0.130030    	;
 n273            	24.5091     	0.269460    	;
 n274            	32.8648     	0.011680    	;
 n275            	29.2533     	0.083450    	;
 n276            	21.3002     	0.209090    	;
 n277            	22.4480     	0.016920    	;
 n278            	22.0132     	0.110880    	;
 n279            	21.7544     	0.083810    	;
 n280            	29.6042     	0.118660    	;
 n281            	31.2675     	0.119930    	;
 n282            	30.4949     	0.157790    	;
 n283            	27.4233     	0.144400    	;
 n284            	26.3666     	0.180790    	;
 n285            	20.4612     	0.189600    	;
 n286            	29.0388     	0.257150    	;
 n287            	33.0444     	0.000000    	;
 n288            	21.6218     	0.014200    	;PRESSURE SENSOR
 n289            	27.4463     	0.046400    	;
 n290            	24.6247     	0.158760    	;
 n291            	32.4985     	0.156560    	;
 n292            	31.9495     	0.084280    	;
 n293            	26.5282     	0.167400    	;
 n294            	26.5192     	0.040990    	;
 n295            	30.8274     	0.145750    	;
 n296            	32.1966     	0.094500    	;PRESSURE SENSOR
 n297            	23.3934     	0.188390    	;
 n298            	34.8909     	0.000000    	;
 n299            	26.7205     	0.181440    	;
 n300            	35.0000     	0.000000    	;
 n301            	23.5200     	0.068200    	;
 n302            	23.3123     	0.162220    	;
 n303            	34.4994     	0.000000    	;
 n304            	32.9780     	0.107660    	;
 n305            	25.4869     	0.229930    	;
 n306            	23.6839     	0.225140    	;
 n307            	31.4204     	0.149260    	;
 n308            	23.3861     	0.096260    	;
 n309            	23.1678     	0.267120    	;
 n310            	22.3600     	0.148030    	;
 n311            	29.5998     	0.019150    	;
 n312            	22.0779     	0.133490    	;
 n313            	21.7616     	0.155160    	;
 n314            	29.6902     	0.082080    	;
 n315            	22.7969     	0.141050    	;
 n316            	29.3551     	0.114660    	;
 n317            	22.2884     	0.080930    	;
 n318            	23.5639     	0.169340    	;
 n319            	30.4617     	0.052630    	;
 n320            	28.2142     	0.101740    	;
 n321            	21.8970     	0.111310    	;
 n322            	26.9371     	0.000000    	;
 n323            	26.0702     	0.210020    	;
 n324            	24.9686     	0.012600    	;
 n325            	24.3047     	0.190220    	;
 n326            	23.6854     	0.187180    	;
 n327            	22.2849     	0.215550    	;
 n328            	22.1954     	0.052700    	;
 n329            	24.3743     	0.007200    	;
 n330            	22.0274     	0.085100    	;
 n331            	22.9257     	0.030820    	;
 n332            	18.0000     	0.005800    	;PRESSURE SENSOR
 n333            	18.0000     	0.039380    	;
 n334            	18.0000     	0.075020    	;
 n335            	27.4500     	0.129530    	;
 n336            	26.0000     	0.307260    	;
 n337            	4.1000      	0.000000    	;
 n338            	28.2000     	0.000000    	;
 n339            	22.8000     	0.216070    	;
 n340            	30.1000     	0.457610    	;
 n341            	22.8000     	0.002160    	;
 n342            	27.3600     	0.000000    	;PRESSURE SENSOR
 n343            	66.1200     	0.128300    	;AMR
 n344            	74.2800     	0.266400    	;AMR
 n345            	71.2300     	0.052560    	;AMR
 n346            	67.9300     	0.178560    	;AMR
 n347            	73.6617     	0.000000    	;AMR
 n348            	74.1128     	0.029880    	;
 n349            	74.5640     	0.059760    	;AMR
 n350            	75.0152     	0.208440    	;AMR
 n351            	75.4663     	0.392400    	;AMR
 n352            	74.1103     	0.133200    	;AMR
 n353            	73.5455     	0.292680    	;AMR
 n354            	73.9127     	0.123120    	;AMR
 n355            	66.4555     	0.438120    	;AMR
 n356            	67.3414     	0.124200    	;AMR
 n357            	69.7450     	0.102240    	;AMR
 n358            	75.9841     	0.550080    	;AMR
 n359            	76.0507     	0.388080    	;
 n360            	64.9738     	0.268200    	;AMR
 n361            	65.4644     	0.113400    	;AMR
 n362            	74.0188     	0.005760    	;AMR
 n363            	73.6907     	0.154440    	;
 n364            	63.4409     	0.099360    	;AMR
 n365            	63.8231     	0.110520    	;AMR
 n366            	61.8702     	0.163800    	;AMR
 n367            	61.7504     	0.044890    	;AMR
 n368            	71.0896     	0.115560    	;AMR
 n369            	60.5924     	0.177840    	;AMR
 n370            	60.5913     	0.040270    	;AMR
 n371            	73.8213     	0.070560    	;AMR
 n372            	65.8656     	0.036000    	;AMR
 n373            	59.6553     	0.030600    	;AMR
 n374            	74.9737     	0.112680    	;AMR
 n375            	73.8301     	0.058680    	;AMR
 n376            	72.6865     	0.128160    	;AMR
 n377            	62.9179     	0.000000    	;AMR
 n378            	68.9578     	0.013680    	;AMR
 n379            	70.0939     	0.097200    	;AMR
 n380            	61.2341     	0.168120    	;
 n381            	74.0464     	0.230040    	;AMR
 n382            	72.7629     	0.147600    	;AMR
 n383            	71.4794     	0.084600    	;AMR
 n384            	69.5445     	0.210240    	;AMR
 n385            	66.8891     	0.048960    	;AMR
 n386            	59.3943     	0.248760    	;AMR
 n387            	64.9448     	0.160920    	;AMR
 n388            	63.7718     	0.298510    	;AMR
 n389            	67.0238     	0.168120    	;AMR
 n390            	38.1640     	0.127800    	;
 n391            	37.6252     	0.120240    	;
 n392            	37.0865     	0.071480    	;
 n393            	38.8775     	0.072580    	;
 n394            	39.0521     	0.087050    	;
 n395            	39.2268     	0.094660    	;
 n396            	39.4015     	0.047860    	;
 n397            	39.5761     	0.138200    	;
 n398            	39.7508     	0.158220    	;
 n399            	39.9254     	0.002520    	;
 n400            	40.2570     	0.110560    	;
 n401            	40.4005     	0.312730    	;
 n402            	41.2645     	0.277420    	;
 n403            	42.4154     	0.307260    	;
 n404            	43.5664     	0.195370    	;
 n405            	34.7226     	0.167090    	;
 n406            	29.9762     	0.121480    	;
 n407            	31.6562     	0.163370    	;
 n408            	36.3159     	0.290810    	;
 n409            	42.1242     	0.042370    	;
 n410            	42.8344     	0.062120    	;PRESSURE SENSOR
 n411            	41.9643     	0.273350    	;
 n412            	32.6351     	0.256140    	;
 n413            	32.5684     	0.053260    	;
 n414            	34.4274     	0.192370    	;
 n415            	28.5315     	0.427700    	;PRESSURE SENSOR
 n416            	40.7274     	0.061380    	;
 n417            	40.9109     	0.138710    	;
 n418            	35.4624     	0.018000    	;
 n419            	34.9649     	0.030130    	;
 n420            	37.4540     	0.125140    	;
 n421            	37.9009     	0.063950    	;
 n422            	38.3478     	0.137970    	;
 n423            	38.7946     	0.373500    	;
 n424            	39.2415     	0.054760    	;
 n425            	34.3122     	0.137610    	;
 n426            	33.7011     	0.102280    	;
 n427            	36.5315     	0.102460    	;
 n428            	36.8386     	0.094750    	;
 n429            	37.1457     	0.003240    	;PRESSURE SENSOR
 n430            	37.4527     	0.123170    	;
 n431            	37.7598     	0.016560    	;
 n432            	38.0669     	0.122760    	;
 n433            	38.3740     	0.265460    	;
 n434            	40.5972     	0.361440    	;
 n435            	28.8164     	0.224230    	;
 n436            	34.2205     	0.079180    	;
 n437            	32.5424     	0.039330    	;
 n438            	39.8942     	0.141160    	;
 n439            	30.7936     	0.141460    	;
 n440            	34.2919     	0.053060    	;
 n441            	34.6102     	0.129530    	;
 n442            	34.9284     	0.000000    	;
 n443            	29.0953     	0.091800    	;
 n444            	28.9522     	0.162680    	;
 n445            	28.2603     	0.074090    	;
 n446            	31.2180     	0.226730    	;
 n447            	31.4091     	0.208640    	;
 n448            	31.6002     	0.059670    	;
 n449            	39.1847     	0.167510    	;
 n450            	35.9868     	0.139680    	;
 n451            	36.1911     	0.277340    	;
 n452            	29.8032     	0.112820    	;
 n453            	30.7973     	0.259670    	;
 n454            	34.0772     	0.349060    	;
 n455            	32.9079     	0.153650    	;
 n456            	31.7385     	0.143710    	;
 n457            	30.5692     	0.222480    	;
 n458            	30.5980     	0.070270    	;PRESSURE SENSOR
 n459            	29.4047     	0.121070    	;
 n460            	28.2114     	0.295630    	;
 n461            	34.2970     	0.439740    	;
 n462            	32.1985     	0.247500    	;
 n463            	28.8609     	0.000000    	;
 n464            	28.3219     	0.000000    	;
 n465            	27.7830     	0.153220    	;
 n466            	28.7199     	0.103250    	;
 n467            	28.0399     	0.000000    	;
 n468            	26.5418     	0.141320    	;
 n469            	26.9995     	0.000000    	;PRESSURE SENSOR
 n470            	26.4802     	0.170640    	;
 n471            	25.9609     	0.262080    	;
 n472            	24.8170     	0.170710    	;
 n473            	24.1747     	0.522810    	;
 n474            	26.1391     	0.010800    	;
 n475            	26.0878     	0.207360    	;
 n476            	24.9631     	0.220640    	;
 n477            	24.8609     	0.069590    	;
 n478            	22.8701     	0.000360    	;
 n479            	22.3924     	0.000000    	;
 n480            	21.9146     	0.479950    	;
 n481            	21.4369     	0.000000    	;
 n482            	24.3157     	0.118550    	;
 n483            	24.5439     	0.529200    	;
 n484            	22.6375     	0.129600    	;
 n485            	21.7743     	0.011000    	;
 n486            	19.4580     	0.145800    	;
 n487            	19.9531     	0.176180    	;
 n488            	22.7713     	0.175930    	;
 n489            	22.0441     	0.397440    	;
 n490            	21.3170     	0.000000    	;
 n491            	23.0928     	0.110380    	;
 n492            	22.9160     	0.138170    	;
 n493            	22.2249     	0.038380    	;
 n494            	23.2411     	0.081320    	;
 n495            	22.9645     	0.149760    	;PRESSURE SENSOR
 n496            	25.3653     	0.337680    	;
 n497            	23.7693     	0.437240    	;
 n498            	26.4312     	0.306650    	;
 n499            	19.6041     	0.334040    	;
 n500            	22.0404     	0.035050    	;
 n501            	21.4607     	0.102600    	;
 n502            	20.8810     	0.122470    	;
 n503            	19.2577     	0.258190    	;
 n504            	20.9964     	0.033120    	;
 n505            	19.4982     	0.036610    	;
 n506            	20.9550     	0.108790    	;PRESSURE SENSOR
 n507            	20.9532     	0.092230    	;
 n508            	20.3725     	0.092160    	;
 n509            	19.7919     	0.084100    	;
 n510            	21.1001     	0.005400    	;
 n511            	19.5500     	0.178780    	;
 n512            	20.1304     	0.170460    	;
 n513            	19.6708     	0.017210    	;
 n514            	19.2910     	0.000000    	;
 n515            	19.4151     	0.000000    	;
 n516            	19.5392     	0.000000    	;PRESSURE SENSOR
 n517            	20.7313     	0.314860    	;
 n518            	19.3656     	0.497740    	;
 n519            	26.6257     	0.317090    	;PRESSURE SENSOR
 n520            	24.9757     	0.394670    	;
 n521            	24.0505     	0.520090    	;
 n522            	21.5056     	0.112500    	;
 n523            	20.0309     	0.293470    	;
 n524            	20.3387     	0.194830    	;
 n525            	21.4862     	0.847800    	;
 n526            	19.4866     	0.000000    	;
 n527            	19.3100     	0.267410    	;
 n528            	25.7956     	0.122980    	;
 n529            	24.2409     	0.995260    	;
 n530            	19.3787     	0.098060    	;
 n531            	19.7982     	0.102020    	;
 n532            	20.9125     	0.051900    	;
 n533            	20.4687     	0.340920    	;
 n534            	25.5403     	0.205600    	;
 n535            	24.1334     	0.048440    	;
 n536            	22.7266     	0.159660    	;
 n537            	22.2569     	0.094590    	;
 n538            	19.0738     	0.000360    	;
 n539            	20.6980     	0.242570    	;
 n540            	18.9223     	0.235840    	;
 n541            	19.1791     	0.034540    	;
 n542            	24.7933     	0.137450    	;
 n543            	23.2015     	0.003600    	;
 n544            	20.1273     	0.332660    	;
 n545            	19.7594     	0.106560    	;
 n546            	19.7716     	0.029840    	;
 n547            	19.7837     	0.109420    	;
 n548            	19.7959     	0.348260    	;
 n549            	19.5515     	0.137300    	;PRESSURE SENSOR
 n550            	19.3558     	0.121500    	;
 n551            	25.5173     	0.727850    	;
 n552            	24.0293     	0.070630    	;
 n553            	19.9928     	0.201370    	;
 n554            	19.7778     	0.041830    	;
 n555            	19.5629     	0.084890    	;
 n556            	20.8791     	0.059330    	;
 n557            	25.1034     	0.012960    	;
 n558            	20.1175     	0.075240    	;
 n559            	19.9605     	0.056300    	;
 n560            	19.8035     	0.022680    	;
 n561            	19.6465     	0.758880    	;
 n562            	19.4841     	0.254520    	;
 n563            	20.0358     	0.048850    	;
 n564            	19.7966     	0.243940    	;
 n565            	19.5573     	0.034270    	;
 n566            	19.3181     	0.014760    	;
 n567            	25.3129     	0.071820    	;
 n568            	23.6078     	0.388060    	;
 n569            	20.2607     	0.064400    	;
 n570            	19.9147     	0.224980    	;
 n571            	19.5688     	0.052340    	;
 n572            	19.2228     	0.100150    	;
 n573            	20.5842     	0.343870    	;
 n574            	20.1088     	0.023150    	;
 n575            	19.6334     	0.000000    	;
 n576            	19.1580     	0.477860    	;
 n577            	25.7043     	0.072270    	;
 n578            	27.4739     	0.133580    	;
 n579            	26.1646     	0.148810    	;
 n580            	20.7618     	0.047470    	;
 n581            	18.2994     	0.117360    	;
 n582            	17.5640     	0.092270    	;
 n583            	26.3222     	0.001440    	;
 n584            	25.1646     	0.140150    	;
 n585            	24.0069     	0.136510    	;
 n586            	24.9275     	0.138820    	;
 n587            	22.3750     	0.114770    	;
 n588            	20.9830     	0.143640    	;
 n589            	18.7000     	0.000000    	;
 n590            	17.6400     	0.000000    	;
 n591            	16.7042     	0.021890    	;
 n592            	19.1676     	0.021130    	;
 n593            	18.5126     	0.051500    	;
 n594            	17.8575     	0.128660    	;
 n595            	17.2025     	0.127530    	;
 n596            	19.4271     	0.000000    	;
 n597            	19.0316     	0.003240    	;
 n598            	18.6362     	0.023150    	;
 n599            	22.6452     	0.376060    	;
 n600            	22.4412     	0.122740    	;
 n601            	22.2372     	0.153880    	;
 n602            	21.3130     	0.395210    	;
 n603            	19.7769     	0.000000    	;
 n604            	16.5252     	0.006120    	;
 n605            	16.5029     	0.000000    	;
 n606            	16.4806     	0.020320    	;
 n607            	16.4583     	0.000000    	;
 n608            	16.7894     	0.000000    	;
 n609            	17.0313     	0.000000    	;
 n610            	17.2732     	0.010800    	;
 n611            	17.5150     	0.000000    	;
 n612            	17.7569     	0.002520    	;
 n613            	17.9988     	0.014760    	;PRESSURE SENSOR
 n614            	18.6734     	0.295990    	;
 n615            	17.7895     	0.003240    	;
 n616            	17.3383     	0.015120    	;
 n617            	16.8872     	0.013320    	;
 n618            	20.5696     	0.039530    	;
 n619            	17.6656     	0.002160    	;
 n620            	17.3876     	0.000000    	;